ZINC000191583186      none
  Mrv1903 01152421303D          

  0  0  0     0  0            999 V3000
M  V30 BEGIN CTAB
M  V30 COUNTS 52 53 0 0 0
M  V30 BEGIN ATOM
M  V30 1 C -15.2579 21.1839 -23.5457 0
M  V30 2 C -15.4512 20.0791 -22.5392 0
M  V30 3 C -16.1319 18.9302 -22.8964 0
M  V30 4 C -16.3092 17.9166 -21.9733 0
M  V30 5 C -15.8055 18.0519 -20.693 0
M  V30 6 C -15.9994 16.9473 -19.6865 0 CFG=1
M  V30 7 C -17.3043 17.1775 -18.9214 0 CFG=1
M  V30 8 H -17.2581 18.1361 -18.4046 0
M  V30 9 C -18.4771 17.184 -19.9039 0 CFG=1
M  V30 10 O -18.5377 15.9273 -20.5816 0 CHG=-1
M  V30 11 N -17.4932 16.1008 -17.9403 0 CFG=1
M  V30 12 H -18.4657 16.0542 -17.675 0
M  V30 13 H -17.2134 15.2212 -18.348 0
M  V30 14 C -16.6739 16.3721 -16.7515 0 CFG=1
M  V30 15 H -15.7066 16.7688 -17.0598 0
M  V30 16 C -17.3857 17.3955 -15.8644 0
M  V30 17 C -16.4667 15.0743 -15.9679 0 CFG=1
M  V30 18 C -15.2522 15.2217 -15.0493 0 CFG=1
M  V30 19 C -15.048 13.9435 -14.2775 0
M  V30 20 C -15.9015 12.8741 -14.4733 0
M  V30 21 C -15.7142 11.7015 -13.7654 0
M  V30 22 C -14.6732 11.5984 -12.8621 0
M  V30 23 C -13.8188 12.6677 -12.6669 0
M  V30 24 C -14.0035 13.8385 -13.3778 0
M  V30 25 N -13.0889 14.9834 -13.1688 0
M  V30 26 O -13.2565 16.0179 -13.7895 0
M  V30 27 O -12.1686 14.891 -12.3763 0
M  V30 28 C -15.1237 19.2002 -20.3363 0
M  V30 29 C -14.943 20.212 -21.2606 0
M  V30 30 H -15.7237 20.9011 -24.4897 0
M  V30 31 H -15.7179 22.0993 -23.1733 0
M  V30 32 H -14.1921 21.3506 -23.702 0
M  V30 33 H -16.5256 18.8246 -23.8966 0
M  V30 34 H -16.8418 17.0194 -22.2521 0
M  V30 35 H -16.0455 15.9887 -20.2033 0
M  V30 36 H -15.1638 16.9428 -18.9865 0
M  V30 37 H -19.4067 17.3481 -19.359 0
M  V30 38 H -18.3368 17.9829 -20.632 0
M  V30 39 H -18.6616 15.1692 -19.9942 0
M  V30 40 H -16.7778 17.5967 -14.9823 0
M  V30 41 H -17.5333 18.3199 -16.4227 0
M  V30 42 H -18.353 16.9988 -15.5563 0
M  V30 43 H -17.3528 14.8667 -15.3682 0
M  V30 44 H -16.2984 14.2526 -16.664 0
M  V30 45 H -14.3659 15.4293 -15.6491 0
M  V30 46 H -15.4205 16.0434 -14.3533 0
M  V30 47 H -16.715 12.9547 -15.1792 0
M  V30 48 H -16.3816 10.8661 -13.9178 0
M  V30 49 H -14.5272 10.6826 -12.3084 0
M  V30 50 H -13.0055 12.5873 -11.9608 0
M  V30 51 H -14.7298 19.3057 -19.3363 0
M  V30 52 H -14.4102 21.1092 -20.9819 0
M  V30 END ATOM
M  V30 BEGIN BOND
M  V30 1 1 1 2
M  V30 2 1 1 30
M  V30 3 1 1 31
M  V30 4 1 1 32
M  V30 5 4 2 29
M  V30 6 4 2 3
M  V30 7 4 3 4
M  V30 8 1 3 33
M  V30 9 4 4 5
M  V30 10 1 4 34
M  V30 11 1 5 6
M  V30 12 4 5 28
M  V30 13 1 6 7
M  V30 14 1 6 35
M  V30 15 1 6 36
M  V30 16 1 7 8
M  V30 17 1 7 9
M  V30 18 1 7 11
M  V30 19 1 9 10
M  V30 20 1 9 37
M  V30 21 1 9 38
M  V30 22 1 10 39
M  V30 23 1 11 12
M  V30 24 1 11 13
M  V30 25 1 11 14
M  V30 26 1 14 15
M  V30 27 1 14 16
M  V30 28 1 14 17
M  V30 29 1 16 40
M  V30 30 1 16 41
M  V30 31 1 16 42
M  V30 32 1 17 18
M  V30 33 1 17 43
M  V30 34 1 17 44
M  V30 35 1 18 19
M  V30 36 1 18 45
M  V30 37 1 18 46
M  V30 38 4 19 24
M  V30 39 4 19 20
M  V30 40 4 20 21
M  V30 41 1 20 47
M  V30 42 4 21 22
M  V30 43 1 21 48
M  V30 44 4 22 23
M  V30 45 1 22 49
M  V30 46 4 23 24
M  V30 47 1 23 50
M  V30 48 1 24 25
M  V30 49 2 25 26
M  V30 50 2 25 27
M  V30 51 4 28 29
M  V30 52 1 28 51
M  V30 53 1 29 52
M  V30 END BOND
M  V30 END CTAB
M  END
$$$$
ZINC000159533726      none
  Mrv1903 01152421303D          

  0  0  0     0  0            999 V3000
M  V30 BEGIN CTAB
M  V30 COUNTS 47 48 0 0 0
M  V30 BEGIN ATOM
M  V30 1 C -16.9017 15.1004 -19.4163 0
M  V30 2 C -16.7714 16.1877 -18.348 0 CFG=2
M  V30 3 H -16.2203 17.0346 -18.7567 0
M  V30 4 C -16.0321 15.6353 -17.1566 0 CHG=1
M  V30 5 O -14.9891 16.1424 -16.8015 0
M  V30 6 N -16.5298 14.5775 -16.4857 0 CHG=-1
M  V30 7 C -15.843 14.0644 -15.3792 0
M  V30 8 C -15.0718 14.9047 -14.5882 0
M  V30 9 C -14.3956 14.3955 -13.4963 0
M  V30 10 N -13.5735 15.2915 -12.6523 0
M  V30 11 O -13.4936 16.4769 -12.9206 0
M  V30 12 O -12.977 14.8434 -11.6896 0
M  V30 13 C -14.486 13.0502 -13.1907 0
M  V30 14 C -15.2532 12.2095 -13.9763 0
M  V30 15 C -15.9364 12.7132 -15.0666 0
M  V30 16 Cl -16.8995 11.6576 -16.0525 0
M  V30 17 N -18.1094 16.6287 -17.9323 0 CFG=1
M  V30 18 H -18.6196 15.8447 -17.5538 0
M  V30 19 C -17.9843 17.6729 -16.9066 0
M  V30 20 C -18.8303 17.1671 -19.0937 0 CFG=1
M  V30 21 C -20.224 17.6264 -18.6609 0 CFG=2
M  V30 22 H -20.1415 18.4019 -17.8994 0
M  V30 23 C -21.028 16.4299 -18.1118 0 CFG=1
M  V30 24 C -22.4742 16.6861 -18.6037 0 CFG=1
M  V30 25 C -22.2547 17.2687 -20.022 0 CFG=1
M  V30 26 C -21.0035 18.161 -19.8751 0 CFG=2
M  V30 27 H -21.3007 19.1956 -19.7034 0
M  V30 28 O -20.1983 18.0724 -21.0524 0 CHG=-1
M  V30 29 H -17.4528 14.2534 -19.0075 0
M  V30 30 H -17.4363 15.5 -20.278 0
M  V30 31 H -15.9087 14.773 -19.7246 0
M  V30 32 H -17.3637 14.1718 -16.7698 0
M  V30 33 H -15.0001 15.9558 -14.8261 0
M  V30 34 H -13.9559 12.6549 -12.3367 0
M  V30 35 H -15.3218 11.1589 -13.7349 0
M  V30 36 H -18.9773 18.0001 -16.5983 0
M  V30 37 H -17.4496 17.2733 -16.0448 0
M  V30 38 H -17.4333 18.5197 -17.3156 0
M  V30 39 H -18.2792 18.014 -19.5027 0
M  V30 40 H -18.9231 16.3923 -19.8549 0
M  V30 41 H -20.6463 15.4942 -18.5203 0
M  V30 42 H -20.9927 16.4142 -17.0225 0
M  V30 43 H -23.0366 15.7537 -18.6518 0
M  V30 44 H -22.9778 17.4096 -17.9626 0
M  V30 45 H -22.0711 16.4684 -20.7388 0
M  V30 46 H -23.1146 17.8653 -20.3266 0
M  V30 47 H -19.9205 17.1726 -21.2722 0
M  V30 END ATOM
M  V30 BEGIN BOND
M  V30 1 1 1 2
M  V30 2 1 1 29
M  V30 3 1 1 30
M  V30 4 1 1 31
M  V30 5 1 2 3
M  V30 6 1 2 4
M  V30 7 1 2 17
M  V30 8 2 4 5
M  V30 9 1 4 6
M  V30 10 1 6 7
M  V30 11 1 6 32
M  V30 12 4 7 15
M  V30 13 4 7 8
M  V30 14 4 8 9
M  V30 15 1 8 33
M  V30 16 1 9 10
M  V30 17 4 9 13
M  V30 18 2 10 11
M  V30 19 2 10 12
M  V30 20 4 13 14
M  V30 21 1 13 34
M  V30 22 4 14 15
M  V30 23 1 14 35
M  V30 24 1 15 16
M  V30 25 1 17 18
M  V30 26 1 17 19
M  V30 27 1 17 20
M  V30 28 1 19 36
M  V30 29 1 19 37
M  V30 30 1 19 38
M  V30 31 1 20 21
M  V30 32 1 20 39
M  V30 33 1 20 40
M  V30 34 1 21 22
M  V30 35 1 21 26
M  V30 36 1 21 23
M  V30 37 1 23 24
M  V30 38 1 23 41
M  V30 39 1 23 42
M  V30 40 1 24 25
M  V30 41 1 24 43
M  V30 42 1 24 44
M  V30 43 1 25 26
M  V30 44 1 25 45
M  V30 45 1 25 46
M  V30 46 1 26 27
M  V30 47 1 26 28
M  V30 48 1 28 47
M  V30 END BOND
M  V30 END CTAB
M  END
$$$$
ZINC000151228439      none
  Mrv1903 01152421303D          

  0  0  0     0  0            999 V3000
M  V30 BEGIN CTAB
M  V30 COUNTS 47 49 0 0 0
M  V30 BEGIN ATOM
M  V30 1 C -16.373 16.1673 -19.4422 0
M  V30 2 C -16.9595 16.9247 -18.2491 0 CFG=1
M  V30 3 H -16.9507 17.9945 -18.4579 0
M  V30 4 N -18.341 16.4819 -18.0192 0 CFG=1
M  V30 5 H -18.4008 15.4834 -18.152 0
M  V30 6 H -18.6156 16.7127 -17.076 0
M  V30 7 C -19.236 17.1566 -18.9688 0 CFG=1
M  V30 8 C -20.675 16.6954 -18.7294 0 CFG=2
M  V30 9 C -21.0915 17.0454 -17.2994 0
M  V30 10 O -20.7595 15.2812 -18.9174 0 CHG=-1
M  V30 11 C -21.593 17.3873 -19.7037 0
M  V30 12 C -21.0775 18.2819 -20.623 0
M  V30 13 C -21.9197 18.9168 -21.5167 0
M  V30 14 C -23.2771 18.6568 -21.4915 0
M  V30 15 C -23.7924 17.7617 -20.5728 0
M  V30 16 C -22.9497 17.1236 -19.6819 0
M  V30 17 C -16.1316 16.6459 -17.021 0
M  V30 18 C -15.9067 15.4377 -16.4534 0
M  V30 19 N -15.1091 15.671 -15.3754 0
M  V30 20 C -14.6215 14.7015 -14.487 0
M  V30 21 C -13.8175 15.0779 -13.4197 0
M  V30 22 C -13.3386 14.1209 -12.5464 0
M  V30 23 C -13.6593 12.789 -12.7345 0
M  V30 24 C -14.4595 12.411 -13.7969 0
M  V30 25 C -14.9464 13.3643 -14.6699 0
M  V30 26 N -14.8798 16.9361 -15.3134 0
M  V30 27 N -15.4701 17.5432 -16.2815 0
M  V30 28 H -16.3817 15.0976 -19.2333 0
M  V30 29 H -16.9715 16.369 -20.3304 0
M  V30 30 H -15.3477 16.4958 -19.6128 0
M  V30 31 H -19.1715 18.2352 -18.8252 0
M  V30 32 H -18.9392 16.9072 -19.9876 0
M  V30 33 H -22.1166 16.7168 -17.1288 0
M  V30 34 H -20.4275 16.5447 -16.5948 0
M  V30 35 H -21.027 18.124 -17.1558 0
M  V30 36 H -20.1934 14.771 -18.3221 0
M  V30 37 H -20.017 18.4851 -20.6427 0
M  V30 38 H -21.517 19.6162 -22.2344 0
M  V30 39 H -23.9351 19.1534 -22.1893 0
M  V30 40 H -24.853 17.5588 -20.5527 0
M  V30 41 H -23.3524 16.4241 -18.9641 0
M  V30 42 H -16.2839 14.4826 -16.7879 0
M  V30 43 H -13.5663 16.1179 -13.2725 0
M  V30 44 H -12.7127 14.413 -11.7161 0
M  V30 45 H -13.2837 12.0424 -12.0503 0
M  V30 46 H -14.708 11.37 -13.9415 0
M  V30 47 H -15.5716 13.0686 -15.4994 0
M  V30 END ATOM
M  V30 BEGIN BOND
M  V30 1 1 1 2
M  V30 2 1 1 28
M  V30 3 1 1 29
M  V30 4 1 1 30
M  V30 5 1 2 3
M  V30 6 1 2 4
M  V30 7 1 2 17
M  V30 8 1 4 5
M  V30 9 1 4 6
M  V30 10 1 4 7
M  V30 11 1 7 8
M  V30 12 1 7 31
M  V30 13 1 7 32
M  V30 14 1 8 9
M  V30 15 1 8 10
M  V30 16 1 8 11
M  V30 17 1 9 33
M  V30 18 1 9 34
M  V30 19 1 9 35
M  V30 20 1 10 36
M  V30 21 4 11 16
M  V30 22 4 11 12
M  V30 23 4 12 13
M  V30 24 1 12 37
M  V30 25 4 13 14
M  V30 26 1 13 38
M  V30 27 4 14 15
M  V30 28 1 14 39
M  V30 29 4 15 16
M  V30 30 1 15 40
M  V30 31 1 16 41
M  V30 32 1 17 27
M  V30 33 2 17 18
M  V30 34 1 18 19
M  V30 35 1 18 42
M  V30 36 1 19 20
M  V30 37 1 19 26
M  V30 38 4 20 25
M  V30 39 4 20 21
M  V30 40 4 21 22
M  V30 41 1 21 43
M  V30 42 4 22 23
M  V30 43 1 22 44
M  V30 44 4 23 24
M  V30 45 1 23 45
M  V30 46 4 24 25
M  V30 47 1 24 46
M  V30 48 1 25 47
M  V30 49 2 26 27
M  V30 END BOND
M  V30 END CTAB
M  END
$$$$
